<?xml version="1.0" encoding="UTF-8"?>

<!-- generated on 12/21/21 13:51:16 by Eclipse SUMO netedit Version 1.6.0
<configuration xmlns:xsi="http://www.w3.org/2001/XMLSchema-instance" xsi:noNamespaceSchemaLocation="http://sumo.dlr.de/xsd/netconvertConfiguration.xsd">

    <input>
        <sumo-net-file value="D:\codecode\AAAmine\Didi\Didi_proj\env_build\sumo_files\auto\a.net.xml"/>
    </input>

    <output>
        <output-file value="D:\codecode\AAAmine\Didi\Didi_proj\env_build\sumo_files\auto\a.net.xml"/>
    </output>

    <processing>
        <geometry.min-radius.fix.railways value="false"/>
        <geometry.max-grade.fix value="false"/>
        <offset.disable-normalization value="true"/>
        <lefthand value="false"/>
    </processing>

    <junctions>
        <no-internal-links value="false"/>
        <no-turnarounds value="true"/>
        <junctions.corner-detail value="5"/>
        <junctions.limit-turn-speed value="5.5"/>
        <rectangular-lane-cut value="false"/>
    </junctions>

    <pedestrian>
        <walkingareas value="false"/>
    </pedestrian>

    <report>
        <aggregate-warnings value="5"/>
    </report>

</configuration>
-->

<net version="1.6" junctionCornerDetail="5" limitTurnSpeed="5.50" xmlns:xsi="http://www.w3.org/2001/XMLSchema-instance" xsi:noNamespaceSchemaLocation="http://sumo.dlr.de/xsd/net_file.xsd">

    <location netOffset="0.00,0.00" convBoundary="-200.00,-200.00,200.00,200.00" origBoundary="-10000000000.00,-10000000000.00,10000000000.00,10000000000.00" projParameter="!"/>

    <edge id=":0_0" function="internal">
        <lane id=":0_0_0" index="0" allow="bicycle" speed="11.42" length="23.04" width="1.00" shape="-6.75,33.86 -8.48,27.56 -12.69,23.06 -19.36,20.36 -22.50,20.05"/>
    </edge>
    <edge id=":0_1" function="internal">
        <lane id=":0_1_0" index="0" allow="bicycle" speed="13.89" length="21.00" width="1.00" shape="-6.75,33.86 -22.08,20.95 -22.08,19.99"/>
    </edge>
    <edge id=":0_2" function="internal">
        <lane id=":0_2_0" index="0" disallow="pedestrian bicycle" speed="12.25" length="25.20" width="3.78" shape="-4.42,33.70 -6.36,26.42 -11.02,21.23 -18.40,18.11 -21.07,17.83"/>
    </edge>
    <edge id=":0_3" function="internal">
        <lane id=":0_3_0" index="0" disallow="pedestrian bicycle" speed="13.89" length="62.93" width="3.06" shape="-0.49,33.42 -2.54,-29.47"/>
    </edge>
    <edge id=":0_4" function="internal">
        <lane id=":0_4_0" index="0" disallow="pedestrian bicycle" speed="13.89" length="52.79" width="3.20" shape="-0.49,33.42 0.36,15.80 5.72,3.22 14.27,-4.31 22.56,-6.73 24.00,-6.75"/>
    </edge>
    <edge id=":0_22" function="internal">
        <lane id=":0_22_0" index="0" allow="bicycle" speed="11.42" length="6.03" width="1.00" shape="-22.50,20.05 -28.50,19.46"/>
    </edge>
    <edge id=":0_23" function="internal">
        <lane id=":0_23_0" index="0" allow="bicycle" speed="13.89" length="55.60" width="1.00" shape="-22.08,19.99 -22.00,-17.67 -8.14,-29.06"/>
    </edge>
    <edge id=":0_24" function="internal">
        <lane id=":0_24_0" index="0" disallow="pedestrian bicycle" speed="12.25" length="7.47" width="3.78" shape="-21.07,17.83 -28.50,17.07"/>
    </edge>
    <edge id=":0_25" function="internal">
        <lane id=":0_25_0" index="0" disallow="pedestrian bicycle" speed="13.89" length="6.00" width="3.20" shape="24.00,-6.75 30.00,-6.84"/>
    </edge>
    <edge id=":0_5" function="internal">
        <lane id=":0_5_0" index="0" allow="bicycle" speed="10.56" length="21.33" width="1.00" shape="30.00,19.36 20.81,20.19 14.39,22.70 10.94,26.61"/>
    </edge>
    <edge id=":0_6" function="internal">
        <lane id=":0_6_0" index="0" allow="bicycle" speed="13.89" length="58.50" width="1.00" shape="30.00,19.36 -28.50,19.46"/>
    </edge>
    <edge id=":0_7" function="internal">
        <lane id=":0_7_0" index="0" disallow="pedestrian bicycle" speed="11.44" length="11.29" width="3.69" shape="30.00,17.02 19.73,18.01 18.84,18.38"/>
    </edge>
    <edge id=":0_8" function="internal">
        <lane id=":0_8_0" index="0" disallow="pedestrian bicycle" speed="13.89" length="58.50" width="3.67" shape="30.00,13.34 -28.50,13.34"/>
        <lane id=":0_8_1" index="1" disallow="pedestrian bicycle" speed="13.89" length="58.50" width="3.30" shape="30.00,9.75 -28.50,9.86"/>
    </edge>
    <edge id=":0_10" function="internal">
        <lane id=":0_10_0" index="0" disallow="pedestrian bicycle" speed="13.89" length="48.44" width="3.06" shape="30.00,6.29 16.43,4.06 6.49,-2.65 0.16,-13.82 -1.51,-23.54"/>
    </edge>
    <edge id=":0_26" function="internal">
        <lane id=":0_26_0" index="0" allow="bicycle" speed="10.56" length="6.25" width="1.00" shape="10.94,26.61 10.72,26.86 9.80,32.70"/>
    </edge>
    <edge id=":0_27" function="internal">
        <lane id=":0_27_0" index="0" disallow="pedestrian bicycle" speed="11.44" length="20.23" width="3.69" shape="18.84,18.38 12.54,20.98 8.46,25.93 7.46,32.87"/>
    </edge>
    <edge id=":0_28" function="internal">
        <lane id=":0_28_0" index="0" disallow="pedestrian bicycle" speed="13.89" length="6.02" width="3.06" shape="-1.51,-23.54 -2.54,-29.47"/>
    </edge>
    <edge id=":0_11" function="internal">
        <lane id=":0_11_0" index="0" allow="bicycle" speed="11.39" length="23.38" width="1.00" shape="7.60,-30.23 9.26,-24.13 13.54,-19.78 20.46,-17.16 24.00,-16.84"/>
    </edge>
    <edge id=":0_12" function="internal">
        <lane id=":0_12_0" index="0" allow="bicycle" speed="13.89" length="20.00" width="1.00" shape="7.60,-30.23 23.41,-17.98"/>
    </edge>
    <edge id=":0_13" function="internal">
        <lane id=":0_13_0" index="0" disallow="pedestrian bicycle" speed="12.17" length="25.20" width="3.60" shape="5.40,-30.06 7.23,-23.03 11.95,-18.01 19.54,-15.00 22.40,-14.72"/>
    </edge>
    <edge id=":0_14" function="internal">
        <lane id=":0_14_0" index="0" disallow="pedestrian bicycle" speed="13.89" length="62.97" width="3.98" shape="2.06,-29.82 3.64,33.13"/>
    </edge>
    <edge id=":0_15" function="internal">
        <lane id=":0_15_0" index="0" disallow="pedestrian bicycle" speed="13.89" length="51.75" width="3.30" shape="2.06,-29.82 0.80,-12.46 -4.97,-0.06 -13.71,7.57 -22.52,9.69"/>
    </edge>
    <edge id=":0_29" function="internal">
        <lane id=":0_29_0" index="0" allow="bicycle" speed="11.39" length="6.02" width="1.00" shape="24.00,-16.84 30.00,-16.29"/>
    </edge>
    <edge id=":0_30" function="internal">
        <lane id=":0_30_0" index="0" allow="bicycle" speed="13.89" length="56.74" width="1.00" shape="23.41,-17.98 23.35,20.56 9.80,32.70"/>
    </edge>
    <edge id=":0_31" function="internal">
        <lane id=":0_31_0" index="0" disallow="pedestrian bicycle" speed="12.17" length="7.63" width="3.60" shape="22.40,-14.72 30.00,-13.99"/>
    </edge>
    <edge id=":0_32" function="internal">
        <lane id=":0_32_0" index="0" disallow="pedestrian bicycle" speed="13.89" length="5.98" width="3.30" shape="-22.52,9.69 -28.50,9.83"/>
    </edge>
    <edge id=":0_16" function="internal">
        <lane id=":0_16_0" index="0" allow="bicycle" speed="10.56" length="20.78" width="1.00" shape="-28.50,-16.31 -19.35,-17.11 -12.91,-19.50 -9.68,-22.94"/>
    </edge>
    <edge id=":0_17" function="internal">
        <lane id=":0_17_0" index="0" allow="bicycle" speed="13.89" length="58.50" width="1.00" shape="-28.50,-16.31 30.00,-16.29"/>
    </edge>
    <edge id=":0_18" function="internal">
        <lane id=":0_18_0" index="0" disallow="pedestrian bicycle" speed="11.42" length="11.15" width="3.58" shape="-28.50,-14.02 -18.31,-14.97 -17.46,-15.31"/>
    </edge>
    <edge id=":0_19" function="internal">
        <lane id=":0_19_0" index="0" disallow="pedestrian bicycle" speed="13.89" length="58.50" width="3.75" shape="-28.50,-10.35 30.00,-10.31"/>
        <lane id=":0_19_1" index="1" disallow="pedestrian bicycle" speed="13.89" length="58.50" width="3.20" shape="-28.50,-6.69 30.00,-6.84"/>
    </edge>
    <edge id=":0_21" function="internal">
        <lane id=":0_21_0" index="0" disallow="pedestrian bicycle" speed="13.89" length="48.40" width="3.98" shape="-28.50,-3.30 -15.39,-1.03 -5.67,5.80 0.67,17.19 2.53,27.20"/>
    </edge>
    <edge id=":0_33" function="internal">
        <lane id=":0_33_0" index="0" allow="bicycle" speed="10.56" length="6.41" width="1.00" shape="-9.68,-22.94 -9.17,-23.48 -8.14,-29.06"/>
    </edge>
    <edge id=":0_34" function="internal">
        <lane id=":0_34_0" index="0" disallow="pedestrian bicycle" speed="11.42" length="19.87" width="3.58" shape="-17.46,-15.31 -11.13,-17.82 -6.98,-22.57 -5.85,-29.23"/>
    </edge>
    <edge id=":0_35" function="internal">
        <lane id=":0_35_0" index="0" disallow="pedestrian bicycle" speed="13.89" length="6.04" width="3.98" shape="2.53,27.20 3.64,33.13"/>
    </edge>
    <edge id=":0_c0" function="crossing" crossingEdges="3i 3o">
        <lane id=":0_c0_0" index="0" allow="pedestrian" speed="1.00" length="17.59" width="6.00" shape="10.09,29.67 -7.46,30.90"/>
    </edge>
    <edge id=":0_c1" function="crossing" crossingEdges="2i 2o">
        <lane id=":0_c1_0" index="0" allow="pedestrian" speed="1.00" length="36.65" width="6.00" shape="27.00,-16.79 27.00,19.86"/>
    </edge>
    <edge id=":0_c2" function="crossing" crossingEdges="1i 1o">
        <lane id=":0_c2_0" index="0" allow="pedestrian" speed="1.00" length="16.77" width="6.00" shape="-8.49,-26.04 8.24,-27.26"/>
    </edge>
    <edge id=":0_c3" function="crossing" crossingEdges="4i 4o">
        <lane id=":0_c3_0" index="0" allow="pedestrian" speed="1.00" length="36.77" width="6.00" shape="-25.50,19.96 -25.50,-16.81"/>
    </edge>
    <edge id=":0_w0" function="walkingarea">
        <lane id=":0_w0_0" index="0" allow="pedestrian" speed="1.00" length="16.17" width="6.00" shape="-28.50,19.96 -28.50,21.96 -9.24,34.03 -7.25,33.89 -8.11,29.64 -10.04,26.15 -13.05,23.44 -17.13,21.51 -22.28,20.35"/>
    </edge>
    <edge id=":0_w1" function="walkingarea">
        <lane id=":0_w1_0" index="0" allow="pedestrian" speed="1.00" length="14.99" width="6.00" shape="10.30,32.67 12.30,32.53 30.00,21.86 30.00,19.86 23.73,20.22 18.66,21.28 14.78,23.06 12.09,25.55 10.60,28.75"/>
    </edge>
    <edge id=":0_w3" function="walkingarea">
        <lane id=":0_w3_0" index="0" allow="pedestrian" speed="1.00" length="16.40" width="6.00" shape="30.00,-16.79 30.00,-18.79 10.09,-30.39 8.09,-30.29 8.89,-26.14 10.83,-22.78 13.91,-20.16 18.13,-18.29 23.49,-17.16"/>
    </edge>
    <edge id=":0_w5" function="walkingarea">
        <lane id=":0_w5_0" index="0" allow="pedestrian" speed="1.00" length="14.86" width="6.00" shape="-8.63,-29.00 -10.63,-28.90 -28.50,-18.81 -28.50,-16.81 -22.26,-17.15 -17.19,-18.17 -13.30,-19.87 -10.57,-22.24 -9.02,-25.30"/>
    </edge>
    <edge id=":1_w1" function="walkingarea">
        <lane id=":1_w1_0" index="0" allow="pedestrian" speed="1.00" length="18.82" width="2.00" shape="-0.36,-200.46 1.64,-200.55 -19.16,-199.52 -17.16,-199.62"/>
    </edge>
    <edge id=":2_w1" function="walkingarea">
        <lane id=":2_w1_0" index="0" allow="pedestrian" speed="1.00" length="38.60" width="2.00" shape="200.00,19.85 200.00,21.85 200.00,-18.75 200.00,-16.75"/>
    </edge>
    <edge id=":3_w0" function="walkingarea">
        <lane id=":3_w0_0" index="0" allow="pedestrian" speed="1.00" length="19.56" width="2.00" shape="4.43,200.62 2.44,200.76 23.94,199.26 21.95,199.40"/>
    </edge>
    <edge id=":4_w0" function="walkingarea">
        <lane id=":4_w0_0" index="0" allow="pedestrian" speed="1.00" length="38.73" width="2.00" shape="-200.00,-16.81 -200.00,-18.81 -200.01,21.92 -200.00,19.92"/>
    </edge>
    <edge id=":a1_0" function="internal">
        <lane id=":a1_0_0" index="0" speed="3.90" length="2.58" shape="148.40,-200.00 148.50,-200.70 148.80,-201.20 149.30,-201.50 150.00,-201.60"/>
    </edge>
    <edge id=":a2_0" function="internal">
        <lane id=":a2_0_0" index="0" speed="3.90" length="2.58" shape="200.00,-201.60 200.70,-201.50 201.20,-201.20 201.50,-200.70 201.60,-200.00"/>
    </edge>
    <edge id=":a3_0" function="internal">
        <lane id=":a3_0_0" index="0" speed="3.90" length="2.58" shape="201.60,-150.00 201.50,-149.30 201.20,-148.80 200.70,-148.50 200.00,-148.40"/>
    </edge>
    <edge id=":a4_0" function="internal">
        <lane id=":a4_0_0" index="0" speed="3.90" length="2.58" shape="150.00,-148.40 149.30,-148.50 148.80,-148.80 148.50,-149.30 148.40,-150.00"/>
    </edge>

    <edge id="1i" from="0" to="1" priority="-1" shape="-0.07,-1.10 -0.91,-27.51 -9.53,-200.00">
        <lane id="1i_0" index="0" allow="pedestrian" speed="13.89" length="170.78" width="2.00" shape="-9.63,-28.95 -18.16,-199.57"/>
        <lane id="1i_1" index="1" allow="bicycle" speed="13.89" length="170.78" width="1.00" shape="-8.14,-29.06 -16.66,-199.64"/>
        <lane id="1i_2" index="2" disallow="pedestrian bicycle" speed="13.89" length="170.78" width="3.58" shape="-5.85,-29.23 -14.37,-199.76"/>
        <lane id="1i_3" index="3" disallow="pedestrian bicycle" speed="13.89" length="170.78" width="3.06" shape="-2.54,-29.47 -11.06,-200.00"/>
    </edge>
    <edge id="1o" from="1" to="0" priority="-1" shape="-9.53,-200.00 -1.00,-28.32 -0.07,-1.10">
        <lane id="1o_0" index="0" allow="pedestrian" speed="13.89" length="170.30" width="2.00" shape="0.64,-200.51 9.09,-30.34"/>
        <lane id="1o_1" index="1" allow="bicycle" speed="13.89" length="170.30" width="1.00" shape="-0.84,-200.00 7.60,-30.23"/>
        <lane id="1o_2" index="2" disallow="pedestrian bicycle" speed="13.89" length="170.30" width="3.41" shape="-3.05,-200.00 5.40,-30.06"/>
        <lane id="1o_3" index="3" disallow="pedestrian bicycle" speed="13.89" length="170.30" width="3.27" shape="-6.39,-200.00 2.06,-29.82"/>
        <lane id="1o_4" index="4" allow="pedestrian" speed="13.89" length="170.30" width="1.50" shape="-8.78,-200.04 -0.31,-29.64"/>
    </edge>
    <edge id="2i" from="0" to="2" priority="-1" shape="-0.07,-1.10 23.08,-5.24 200.00,-5.20">
        <lane id="2i_0" index="0" allow="pedestrian" speed="13.89" length="170.00" width="2.00" shape="30.00,-17.79 200.00,-17.75"/>
        <lane id="2i_1" index="1" allow="bicycle" speed="13.89" length="170.00" width="1.00" shape="30.00,-16.29 200.00,-16.25"/>
        <lane id="2i_2" index="2" disallow="pedestrian bicycle" speed="13.89" length="170.00" width="3.60" shape="30.00,-13.99 200.00,-13.95"/>
        <lane id="2i_3" index="3" disallow="pedestrian bicycle" speed="13.89" length="170.00" width="3.75" shape="30.00,-10.31 200.00,-10.27"/>
        <lane id="2i_4" index="4" disallow="pedestrian bicycle" speed="13.89" length="170.00" width="3.20" shape="30.00,-6.84 200.00,-6.80"/>
    </edge>
    <edge id="2o" from="2" to="0" priority="-1" shape="200.00,-5.20 20.39,-5.19 10.24,-5.36 -0.07,-1.10">
        <lane id="2o_0" index="0" allow="pedestrian" speed="13.89" length="170.00" width="2.00" shape="200.00,20.85 30.00,20.86"/>
        <lane id="2o_1" index="1" allow="bicycle" speed="13.89" length="170.00" width="1.00" shape="200.00,19.35 30.00,19.36"/>
        <lane id="2o_2" index="2" disallow="pedestrian bicycle" speed="13.89" length="170.00" width="3.68" shape="200.00,17.01 30.00,17.02"/>
        <lane id="2o_3" index="3" disallow="pedestrian bicycle" speed="13.89" length="170.00" width="3.67" shape="200.00,13.33 30.00,13.34"/>
        <lane id="2o_4" index="4" disallow="pedestrian bicycle" speed="13.89" length="170.00" width="3.52" shape="200.00,9.74 30.00,9.75"/>
        <lane id="2o_5" index="5" disallow="pedestrian bicycle" speed="13.89" length="170.00" width="3.39" shape="200.00,6.28 30.00,6.29"/>
        <lane id="2o_6" index="6" allow="pedestrian" speed="13.89" length="170.00" width="9.79" shape="200.00,-0.31 30.00,-0.30"/>
    </edge>
    <edge id="3i" from="0" to="3" priority="-1" shape="-0.07,-1.10 1.59,32.37 13.30,200.00">
        <lane id="3i_0" index="0" allow="pedestrian" speed="13.89" length="167.14" width="2.00" shape="11.30,32.60 22.95,199.33"/>
        <lane id="3i_1" index="1" allow="bicycle" speed="13.89" length="167.14" width="1.00" shape="9.80,32.70 21.45,199.43"/>
        <lane id="3i_2" index="2" disallow="pedestrian bicycle" speed="13.89" length="167.14" width="3.69" shape="7.46,32.87 19.11,199.59"/>
        <lane id="3i_3" index="3" disallow="pedestrian bicycle" speed="13.89" length="167.14" width="3.98" shape="3.64,33.13 15.29,199.86"/>
    </edge>
    <edge id="3o" from="3" to="0" priority="-1" shape="13.30,200.00 1.54,32.09 -0.07,-1.10">
        <lane id="3o_0" index="0" allow="pedestrian" speed="13.89" length="167.14" width="2.00" shape="3.43,200.69 -8.24,33.96"/>
        <lane id="3o_1" index="1" allow="bicycle" speed="13.89" length="167.14" width="1.00" shape="4.93,200.59 -6.75,33.86"/>
        <lane id="3o_2" index="2" disallow="pedestrian bicycle" speed="13.89" length="167.14" width="3.66" shape="7.25,200.42 -4.42,33.70"/>
        <lane id="3o_3" index="3" disallow="pedestrian bicycle" speed="13.89" length="167.14" width="4.23" shape="11.19,200.15 -0.49,33.42"/>
    </edge>
    <edge id="4i" from="0" to="4" priority="-1" shape="-0.07,-1.10 -22.99,-1.66 -200.00,-1.70">
        <lane id="4i_0" index="0" allow="pedestrian" speed="13.89" length="171.25" width="2.00" shape="-28.50,20.96 -200.01,20.92"/>
        <lane id="4i_1" index="1" allow="bicycle" speed="13.89" length="171.25" width="1.00" shape="-28.50,19.46 -200.00,19.42"/>
        <lane id="4i_2" index="2" disallow="pedestrian bicycle" speed="13.89" length="171.25" width="3.78" shape="-28.50,17.07 -200.00,17.03"/>
        <lane id="4i_3" index="3" disallow="pedestrian bicycle" speed="13.89" length="171.25" width="3.67" shape="-28.50,13.34 -200.00,13.30"/>
        <lane id="4i_4" index="4" disallow="pedestrian bicycle" speed="13.89" length="171.25" width="3.30" shape="-28.50,9.86 -200.00,9.82"/>
        <lane id="4i_5" index="5" allow="pedestrian" speed="13.89" length="171.25" width="9.87" shape="-30.00,3.27 -200.00,3.23"/>
    </edge>
    <edge id="4o" from="4" to="0" priority="-1" shape="-200.00,-1.70 -22.59,-1.70 -0.07,-1.10">
        <lane id="4o_0" index="0" allow="pedestrian" speed="13.89" length="171.50" width="2.00" shape="-200.00,-17.81 -28.50,-17.81"/>
        <lane id="4o_1" index="1" allow="bicycle" speed="13.89" length="171.50" width="1.00" shape="-200.00,-16.31 -28.50,-16.31"/>
        <lane id="4o_2" index="2" disallow="pedestrian bicycle" speed="13.89" length="171.50" width="3.58" shape="-200.00,-14.02 -28.50,-14.02"/>
        <lane id="4o_3" index="3" disallow="pedestrian bicycle" speed="13.89" length="171.50" width="3.76" shape="-200.00,-10.35 -28.50,-10.35"/>
        <lane id="4o_4" index="4" disallow="pedestrian bicycle" speed="13.89" length="171.50" width="3.56" shape="-200.00,-6.69 -28.50,-6.69"/>
        <lane id="4o_5" index="5" disallow="pedestrian bicycle" speed="13.89" length="171.50" width="3.21" shape="-200.00,-3.30 -28.50,-3.30"/>
    </edge>
    <edge id="a1toa2" from="a1" to="a2" priority="-1">
        <lane id="a1toa2_0" index="0" speed="13.89" length="50.00" shape="150.00,-201.60 200.00,-201.60"/>
    </edge>
    <edge id="a2toa3" from="a2" to="a3" priority="-1">
        <lane id="a2toa3_0" index="0" speed="13.89" length="50.00" shape="201.60,-200.00 201.60,-150.00"/>
    </edge>
    <edge id="a3toa4" from="a3" to="a4" priority="-1">
        <lane id="a3toa4_0" index="0" speed="13.89" length="50.00" shape="200.00,-148.40 150.00,-148.40"/>
    </edge>
    <edge id="a4toa1" from="a4" to="a1" priority="-1">
        <lane id="a4toa1_0" index="0" speed="13.89" length="50.00" shape="148.40,-150.00 148.40,-200.00"/>
    </edge>

    <tlLogic id="0" type="static" programID="0" offset="0">
        <phase duration="25" state="gGgGGGgrgrrrgGgGGGgrgrrrrGrGrrrrr"/>
        <phase duration="15" state="grgGGGgrgrrrgrgGGGgrgrrrrrrrrrrrr"/>
        <phase duration="5"  state="grgyyygrgrrrgrgyyygrgrrrrrrrrrrrr"/>
        <phase duration="20" state="grgrrrgrgrrrgrgrrrgrgrrrrrrrrrrrr"/>
        <phase duration="25" state="grgrrrgGgGGrgrgrrrgGgGGrGrGrrrrrr"/>
        <phase duration="5"  state="grgrrrgrgyyrgrgrrrgrgyyrrrrrrrrrr"/>
        <phase duration="10" state="grgrrrgrgrrrgrgrrrgrgrrrrrrrrrrrr"/>
        <phase duration="15" state="grgrrrgrgrrGgrgrrrgrgrrGrrrrrrrrr"/>
        <phase duration="5"  state="grgrrrgrgrrygrgrrrgrgrryrrrrrrrrr"/>
        <phase duration="10" state="grgrrrgrgrrrgrgrrrgrgrrrrrrrrrrrr"/>
    </tlLogic>

    <junction id="0" type="traffic_light" x="-0.07" y="-1.10" incLanes="3o_0 3o_1 3o_2 3o_3 2o_0 2o_1 2o_2 2o_3 2o_4 2o_5 2o_6 1o_0 1o_1 1o_2 1o_3 1o_4 4o_0 4o_1 4o_2 4o_3 4o_4 4o_5 :0_w1_0 :0_w3_0 :0_w5_0 :0_w0_0" intLanes=":0_22_0 :0_23_0 :0_24_0 :0_3_0 :0_25_0 :0_26_0 :0_6_0 :0_27_0 :0_8_0 :0_8_1 :0_28_0 :0_29_0 :0_30_0 :0_31_0 :0_14_0 :0_32_0 :0_33_0 :0_17_0 :0_34_0 :0_19_0 :0_19_1 :0_35_0 :0_c0_0 :0_c1_0 :0_c2_0 :0_c3_0" shape="-10.65,-28.87 -28.50,-18.79 -28.50,-1.70 -30.00,-1.70 -30.00,8.17 -28.50,8.17 -28.50,22.02 -9.19,34.03 12.26,32.53 30.00,21.82 30.00,-18.75 10.03,-30.41" customShape="1" rightOfWay="edgePriority">
        <request index="0"  response="10010000000000000001000000" foes="10010000000000000001000000" cont="1"/>
        <request index="1"  response="01011111111000000000000000" foes="01011111111000001101000100" cont="1"/>
        <request index="2"  response="10010000000000001101000010" foes="10010000000000001101000010" cont="1"/>
        <request index="3"  response="01011111101000010000000000" foes="01011111101000011101000000" cont="0"/>
        <request index="4"  response="00111110000101011101000000" foes="00111110000101011101000000" cont="1"/>
        <request index="5"  response="00110000000001000000000000" foes="00110000000001000000000000" cont="1"/>
        <request index="6"  response="10101000000000000000011111" foes="10101000000101000010011111" cont="0"/>
        <request index="7"  response="00110000000101000001000000" foes="00110000000101000001000000" cont="1"/>
        <request index="8"  response="10101000001000000000011110" foes="10101000001101000000011110" cont="0"/>
        <request index="9"  response="10101000001000000000011110" foes="10101000001101000000011110" cont="0"/>
        <request index="10" response="01100110101101000000011000" foes="01100110101101000000011000" cont="1"/>
        <request index="11" response="01100000100000000000000000" foes="01100000100000000000000000" cont="1"/>
        <request index="12" response="01010000000000011111110000" foes="01010110100010011111110000" cont="1"/>
        <request index="13" response="01100110100001000000000000" foes="01100110100001000000000000" cont="1"/>
        <request index="14" response="01011000000000011111010000" foes="01011110100000011111010000" cont="0"/>
        <request index="15" response="11001110100000011100001010" foes="11001110100000011100001010" cont="1"/>
        <request index="16" response="11000000000000000000000010" foes="11000000000000000000000010" cont="1"/>
        <request index="17" response="10100000001111110000000000" foes="10100001001111110000001010" cont="0"/>
        <request index="18" response="11000000100000000000001010" foes="11000000100000000000001010" cont="1"/>
        <request index="19" response="10100000001111010000010000" foes="10100000001111010000011010" cont="0"/>
        <request index="20" response="10100000001111010000010000" foes="10100000001111010000011010" cont="0"/>
        <request index="21" response="10010000001100001101011010" foes="10010000001100001101011010" cont="1"/>
        <request index="22" response="00000000000000000000000000" foes="00001000000101000010111111" cont="0"/>
        <request index="23" response="00000000000000000000000000" foes="00000110100010111111110000" cont="0"/>
        <request index="24" response="00000000000000000000000000" foes="00000001011111110000001010" cont="0"/>
        <request index="25" response="00000000000000000000000000" foes="00001111111000001101000101" cont="0"/>
    </junction>
    <junction id="1" type="dead_end" x="-9.53" y="-200.00" incLanes="1i_0 1i_1 1i_2 1i_3" intLanes="" shape="-0.38,-200.00 -12.77,-200.00 -3.37,-200.00" customShape="1"/>
    <junction id="2" type="dead_end" x="200.00" y="-5.20" incLanes="2i_0 2i_1 2i_2 2i_3 2i_4" intLanes="" shape="200.00,-5.20 200.00,21.85 200.00,-18.75"/>
    <junction id="3" type="dead_end" x="13.30" y="200.00" incLanes="3i_0 3i_1 3i_2 3i_3" intLanes="" shape="13.30,200.00 2.44,200.76 23.94,199.26"/>
    <junction id="4" type="dead_end" x="-200.00" y="-1.70" incLanes="4i_0 4i_1 4i_2 4i_3 4i_4 4i_5" intLanes="" shape="-200.00,-1.70 -200.00,-18.81 -200.01,21.92"/>
    <junction id="a1" type="priority" x="150.00" y="-200.00" incLanes="a4toa1_0" intLanes=":a1_0_0" shape="146.80,-200.00 150.00,-200.00 150.00,-203.20 148.22,-202.84 147.60,-202.40 147.16,-201.78 146.89,-200.98">
        <request index="0" response="0" foes="0" cont="0"/>
    </junction>
    <junction id="a2" type="priority" x="200.00" y="-200.00" incLanes="a1toa2_0" intLanes=":a2_0_0" shape="200.00,-200.00 203.20,-200.00 202.84,-201.78 202.40,-202.40 201.78,-202.84 200.98,-203.11 200.00,-203.20">
        <request index="0" response="0" foes="0" cont="0"/>
    </junction>
    <junction id="a3" type="priority" x="200.00" y="-150.00" incLanes="a2toa3_0" intLanes=":a3_0_0" shape="203.20,-150.00 200.00,-150.00 200.00,-146.80 201.78,-147.16 202.40,-147.60 202.84,-148.22 203.11,-149.02">
        <request index="0" response="0" foes="0" cont="0"/>
    </junction>
    <junction id="a4" type="priority" x="150.00" y="-150.00" incLanes="a3toa4_0" intLanes=":a4_0_0" shape="150.00,-146.80 150.00,-150.00 146.80,-150.00 147.16,-148.22 147.60,-147.60 148.22,-147.16 149.02,-146.89">
        <request index="0" response="0" foes="0" cont="0"/>
    </junction>

    <junction id=":0_22_0" type="internal" x="-22.50" y="20.05" incLanes=":0_0_0" intLanes=":0_6_0 :0_8_0 :0_8_1 :0_15_0 :0_c0_0 :0_c3_0"/>
    <junction id=":0_23_0" type="internal" x="-22.08" y="19.99" incLanes=":0_1_0" intLanes=""/>
    <junction id=":0_24_0" type="internal" x="-21.07" y="17.83" incLanes=":0_2_0 3o_1" intLanes=":0_1_0 :0_6_0 :0_8_0 :0_8_1 :0_15_0 :0_c0_0 :0_c3_0"/>
    <junction id=":0_25_0" type="internal" x="24.00" y="-6.75" incLanes=":0_4_0" intLanes=":0_6_0 :0_8_0 :0_8_1 :0_10_0 :0_11_0 :0_12_0 :0_13_0 :0_14_0 :0_17_0 :0_19_0 :0_19_1 :0_21_0 :0_c0_0 :0_c1_0"/>
    <junction id=":0_26_0" type="internal" x="10.94" y="26.61" incLanes=":0_5_0" intLanes=":0_12_0 :0_14_0 :0_21_0 :0_c0_0 :0_c1_0"/>
    <junction id=":0_27_0" type="internal" x="18.84" y="18.38" incLanes=":0_7_0 2o_1" intLanes=":0_6_0 :0_12_0 :0_14_0 :0_21_0 :0_c0_0 :0_c1_0"/>
    <junction id=":0_28_0" type="internal" x="-1.51" y="-23.54" incLanes=":0_10_0" intLanes=":0_1_0 :0_3_0 :0_4_0 :0_12_0 :0_14_0 :0_15_0 :0_16_0 :0_17_0 :0_18_0 :0_19_0 :0_19_1 :0_c1_0 :0_c2_0"/>
    <junction id=":0_29_0" type="internal" x="24.00" y="-16.84" incLanes=":0_11_0" intLanes=":0_4_0 :0_17_0 :0_19_0 :0_19_1 :0_c1_0 :0_c2_0"/>
    <junction id=":0_30_0" type="internal" x="23.41" y="-17.98" incLanes=":0_12_0" intLanes=""/>
    <junction id=":0_31_0" type="internal" x="22.40" y="-14.72" incLanes=":0_13_0 1o_1" intLanes=":0_4_0 :0_12_0 :0_17_0 :0_19_0 :0_19_1 :0_c1_0 :0_c2_0"/>
    <junction id=":0_32_0" type="internal" x="-22.52" y="9.69" incLanes=":0_15_0" intLanes=":0_0_0 :0_1_0 :0_2_0 :0_3_0 :0_6_0 :0_8_0 :0_8_1 :0_10_0 :0_17_0 :0_19_0 :0_19_1 :0_21_0 :0_c2_0 :0_c3_0"/>
    <junction id=":0_33_0" type="internal" x="-9.68" y="-22.94" incLanes=":0_16_0" intLanes=":0_1_0 :0_3_0 :0_10_0 :0_c2_0 :0_c3_0"/>
    <junction id=":0_34_0" type="internal" x="-17.46" y="-15.31" incLanes=":0_18_0 4o_1" intLanes=":0_1_0 :0_3_0 :0_10_0 :0_17_0 :0_c2_0 :0_c3_0"/>
    <junction id=":0_35_0" type="internal" x="2.53" y="27.20" incLanes=":0_21_0" intLanes=":0_1_0 :0_3_0 :0_4_0 :0_5_0 :0_6_0 :0_7_0 :0_8_0 :0_8_1 :0_12_0 :0_14_0 :0_15_0 :0_c0_0 :0_c3_0"/>

    <connection from="1o" to="2i" fromLane="1" toLane="1" via=":0_11_0" tl="0" linkIndex="12" dir="r" state="o"/>
    <connection from="1o" to="3i" fromLane="1" toLane="1" contPos="20.00" shape="7.60,-30.23 23.41,-17.98 23.35,20.56 9.80,32.70" via=":0_12_0" tl="0" linkIndex="12" linkIndex2="13" dir="s" state="o"/>
    <connection from="1o" to="2i" fromLane="2" toLane="2" via=":0_13_0" tl="0" linkIndex="14" dir="r" state="o"/>
    <connection from="1o" to="3i" fromLane="3" toLane="3" via=":0_14_0" tl="0" linkIndex="16" dir="s" state="o"/>
    <connection from="1o" to="4i" fromLane="3" toLane="4" shape="2.06,-29.82 0.80,-12.46 -4.97,-0.06 -13.71,7.57 -22.52,9.69 -30.00,9.86" via=":0_15_0" tl="0" linkIndex="17" dir="l" state="o"/>
    <connection from="2o" to="3i" fromLane="1" toLane="1" via=":0_5_0" tl="0" linkIndex="6" dir="r" state="o"/>
    <connection from="2o" to="4i" fromLane="1" toLane="1" via=":0_6_0" tl="0" linkIndex="7" dir="s" state="o"/>
    <connection from="2o" to="3i" fromLane="2" toLane="2" via=":0_7_0" tl="0" linkIndex="8" dir="r" state="o"/>
    <connection from="2o" to="4i" fromLane="3" toLane="3" via=":0_8_0" tl="0" linkIndex="9" dir="s" state="o"/>
    <connection from="2o" to="4i" fromLane="4" toLane="4" via=":0_8_1" tl="0" linkIndex="10" dir="s" state="o"/>
    <connection from="2o" to="1i" fromLane="5" toLane="3" via=":0_10_0" tl="0" linkIndex="11" dir="l" state="o"/>
    <connection from="3o" to="4i" fromLane="1" toLane="1" via=":0_0_0" tl="0" linkIndex="0" dir="r" state="o"/>
    <connection from="3o" to="1i" fromLane="1" toLane="1" contPos="21.00" shape="-6.75,33.86 -22.08,20.95 -22.00,-17.67 -8.14,-29.06" via=":0_1_0" tl="0" linkIndex="0" linkIndex2="1" dir="s" state="o"/>
    <connection from="3o" to="4i" fromLane="2" toLane="2" via=":0_2_0" tl="0" linkIndex="2" dir="r" state="o"/>
    <connection from="3o" to="1i" fromLane="3" toLane="3" via=":0_3_0" tl="0" linkIndex="4" dir="s" state="o"/>