<configuration>

    <input>
        <net-file value="a.net.xml"/>
        <route-files value="cross.rou.xml"/>
    </input>
    <time>
        <step-length value="0.1" />
    </time>
        <lanechange.duration value="1" />

</configuration>
