<routes>
    <vType id="car_1" length="4.303" width="1.78" accel="2.6" decel="4.5" apparentDecel="4.5" emergencyDecel="4.5"
           sigma="0.5" tau="1" minGap="4.5" maxSpeed="8" speedDev="0" color="24,0,255,255" vClass="passenger"
           guiShape="passenger" impatience="0" laneChangeModel="LC2013" carFollowModel="Krauss" latAlignment="center"
           minGapLat="0.1" maxSpeedLat="1"/>
    <vType id="car_2" length="4.882" width="1.82" accel="2.6" decel="4.5" apparentDecel="4.5" emergencyDecel="4.5"
           sigma="0.5" tau="1" minGap="4.5" maxSpeed="8" speedDev="0" color="62,62,62,235" vClass="passenger"
           guiShape="passenger" impatience="0" laneChangeModel="LC2013" carFollowModel="Krauss" latAlignment="center"
           minGapLat="0.1" maxSpeedLat="1"/>
    <vType id="car_3" length="5.163" width="2.0" accel="2.6" decel="4.5" apparentDecel="4.5" emergencyDecel="4.5"
           sigma="0.5" tau="1" minGap="4.5" maxSpeed="7" speedDev="0" color="255,255,255,186" vClass="passenger"
           guiShape="passenger" impatience="0" laneChangeModel="LC2013" carFollowModel="Krauss" latAlignment="center"
           minGapLat="0.1" maxSpeedLat="1"/>
    <vType id="bicycle_1" length="1.8" width="0.45" minGap="1" maxSpeed="3.5" vClass="bicycle" jmCrossingGap="2" carFollowModel="Krauss" lcSigma="0.5"/>
    <vType id="bicycle_2" length="1.93" width="0.45" minGap="1" maxSpeed="3.5" vClass="bicycle" jmCrossingGap="2" carFollowModel="Krauss" lcSigma="0.5"/>

    <vType id="self_car" length="5" width="1.8" accel="3.5" decel="2.2" sigma="1.0" guiShape="passenger/wagon"
           color="1,0,1" jmCrossingGap="3" maxSpeed="30"/>
    <!--    1o->->-->
    <flow id="carflow_1.11" type="car_1" beg="0" from="1o" to="4i" departLane="best"
          departPos="0" departSpeed="random" vehsPerHour="68"/>
    <flow id="carflow_1.12" type="car_2" beg="0" from="1o" to="4i" departLane="best"
          departPos="0" departSpeed="random" vehsPerHour="68"/>
    <flow id="carflow_1.13" type="car_3" beg="0" from="1o" to="4i" departLane="best"
          departPos="0" departSpeed="random" vehsPerHour="68"/>

    <flow id="carflow_1.21" type="car_1" beg="0" from="1o" to="3i" departLane="best"
          departPos="0" departSpeed="random" vehsPerHour="120"/>
    <flow id="carflow_1.22" type="car_2" beg="0" from="1o" to="3i" departLane="best"
          departPos="0" departSpeed="random" vehsPerHour="120"/>
    <flow id="carflow_1.23" type="car_3" beg="0" from="1o" to="3i" departLane="best"
          departPos="0" departSpeed="random" vehsPerHour="120"/>

    <flow id="carflow_1.31" type="car_1" beg="0" from="1o" to="2i" departLane="best"
          departPos="0" departSpeed="random" vehsPerHour="120"/>
    <flow id="carflow_1.32" type="car_2" beg="0" from="1o" to="2i" departLane="best"
          departPos="0" departSpeed="random" vehsPerHour="120"/>
    <flow id="carflow_1.33" type="car_3" beg="0" from="1o" to="2i" departLane="best"
          departPos="0" departSpeed="random" vehsPerHour="120"/>

    <!--    2o->->-->
    <flow id="carflow_2.11" type="car_1" beg="0" from="2o" to="1i" departLane="best"
          departPos="0" departSpeed="random" vehsPerHour="68"/>
    <flow id="carflow_2.12" type="car_2" beg="0" from="2o" to="1i" departLane="best"
          departPos="0" departSpeed="random" vehsPerHour="68"/>
    <flow id="carflow_2.13" type="car_3" beg="0" from="2o" to="1i" departLane="best"
          departPos="0" departSpeed="random" vehsPerHour="68"/>

    <flow id="carflow_2.21" type="car_1" beg="0" from="2o" to="4i" departLane="best"
          departPos="0" departSpeed="random" vehsPerHour="120"/>
    <flow id="carflow_2.22" type="car_2" beg="0" from="2o" to="4i" departLane="best"
          departPos="0" departSpeed="random" vehsPerHour="120"/>
    <flow id="carflow_2.23" type="car_3" beg="0" from="2o" to="4i" departLane="best"
          departPos="0" departSpeed="random" vehsPerHour="120"/>

    <flow id="carflow_2.31" type="car_1" beg="0" from="2o" to="3i" departLane="best"
          departPos="0" departSpeed="random" vehsPerHour="120"/>
    <flow id="carflow_2.32" type="car_2" beg="0" from="2o" to="3i" departLane="best"
          departPos="0" departSpeed="random" vehsPerHour="120"/>
    <flow id="carflow_2.33" type="car_3" beg="0" from="2o" to="3i" departLane="best"
          departPos="0" departSpeed="random" vehsPerHour="120"/>

    <!--    3o->->-->
    <flow id="carflow_3.11" type="car_1" beg="0" from="3o" to="2i" departLane="best"
          departPos="0" departSpeed="random" vehsPerHour="68"/>
    <flow id="carflow_3.12" type="car_2" beg="0" from="3o" to="2i" departLane="best"
          departPos="0" departSpeed="random" vehsPerHour="68"/>
    <flow id="carflow_3.13" type="car_3" beg="0" from="3o" to="2i" departLane="best"
          departPos="0" departSpeed="random" vehsPerHour="68"/>

    <flow id="carflow_3.21" type="car_1" beg="0" from="3o" to="1i" departLane="best"
          departPos="0" departSpeed="random" vehsPerHour="120"/>
    <flow id="carflow_3.22" type="car_2" beg="0" from="3o" to="1i" departLane="best"
          departPos="0" departSpeed="random" vehsPerHour="120"/>
    <flow id="carflow_3.23" type="car_3" beg="0" from="3o" to="1i" departLane="best"
          departPos="0" departSpeed="random" vehsPerHour="120"/>

    <flow id="carflow_3.31" type="car_1" beg="0" from="3o" to="4i" departLane="best"
          departPos="0" departSpeed="random" vehsPerHour="120"/>
    <flow id="carflow_3.32" type="car_2" beg="0" from="3o" to="4i" departLane="best"
          departPos="0" departSpeed="random" vehsPerHour="120"/>
    <flow id="carflow_3.33" type="car_3" beg="0" from="3o" to="4i" departLane="best"
          departPos="0" departSpeed="random" vehsPerHour="120"/>

    <!--    4o->->-->
    <flow id="carflow_4.11" type="car_1" beg="0" from="4o" to="3i" departLane="best"
          departPos="0" departSpeed="random" vehsPerHour="68"/>
    <flow id="carflow_4.12" type="car_2" beg="0" from="4o" to="3i" departLane="best"
          departPos="0" departSpeed="random" vehsPerHour="68"/>
    <flow id="carflow_4.13" type="car_3" beg="0" from="4o" to="3i" departLane="best"
          departPos="0" departSpeed="random" vehsPerHour="68"/>

    <flow id="carflow_4.21" type="car_1" beg="0" from="4o" to="2i" departLane="best"
          departPos="0" departSpeed="random" vehsPerHour="120"/>
    <flow id="carflow_4.22" type="car_2" beg="0" from="4o" to="2i" departLane="best"
          departPos="0" departSpeed="random" vehsPerHour="120"/>
    <flow id="carflow_4.23" type="car_3" beg="0" from="4o" to="2i" departLane="best"
          departPos="0" departSpeed="random" vehsPerHour="120"/>

    <flow id="carflow_4.31" type="car_1" beg="0" from="4o" to="1i" departLane="best"
          departPos="0" departSpeed="random" vehsPerHour="120"/>
    <flow id="carflow_4.32" type="car_2" beg="0" from="4o" to="1i" departLane="best"
          departPos="0" departSpeed="random" vehsPerHour="120"/>
    <flow id="carflow_4.33" type="car_3" beg="0" from="4o" to="1i" departLane="best"
          departPos="0" departSpeed="random" vehsPerHour="120"/>

    <flow id="carflow_11" type="bicycle_1" beg="0" from="1o" to="3i" departLane="best"
          departPos="0" departSpeed="random" vehsPerHour="120"/>
    <flow id="carflow_12" type="bicycle_2" beg="0" from="1o" to="2i" departLane="best"
          departPos="0" departSpeed="random" vehsPerHour="120"/>

    <flow id="carflow_21" type="bicycle_1" beg="0" from="2o" to="4i" departLane="best"
          departPos="0" departSpeed="random" vehsPerHour="120"/>
    <flow id="carflow_22" type="bicycle_2" beg="0" from="2o" to="3i" departLane="best"
          departPos="0" departSpeed="random" vehsPerHour="120"/>

    <flow id="carflow_31" type="bicycle_1" beg="0" from="3o" to="1i" departLane="best"
          departPos="0" departSpeed="random" vehsPerHour="120"/>
    <flow id="carflow_32" type="bicycle_2" beg="0" from="3o" to="4i" departLane="best"
          departPos="0" departSpeed="random" vehsPerHour="120"/>

    <flow id="carflow_41" type="bicycle_1" beg="0" from="4o" to="2i" departLane="best"
          departPos="0" departSpeed="random" vehsPerHour="120"/>
    <flow id="carflow_42" type="bicycle_2" beg="0" from="4o" to="1i" departLane="best"
          departPos="0" departSpeed="random" vehsPerHour="120"/>

<!--    <personFlow id="1o4o" begin="1" period="15">-->
<!--        <walk edges="1o 4o"/>-->
<!--    </personFlow>-->
    <personFlow id="1o3i" begin="1" period="10">
        <walk edges="1o 3i"/>
    </personFlow>
<!--    <personFlow id="1o2i" begin="1" period="10">-->
<!--        <walk edges="1o 2i"/>-->
<!--    </personFlow>-->

    <personFlow id="2o1o" begin="1" period="10">
        <walk edges="2o 1o"/>
    </personFlow>
<!--    <personFlow id="2o4i" begin="1" period="10">-->
<!--        <walk edges="2o 4i"/>-->
<!--    </personFlow>-->
<!--    <personFlow id="2o3i" begin="1" period="10">-->
<!--        <walk edges="2o 3i"/>-->
<!--    </personFlow>-->

<!--    <personFlow id="3o2o" begin="1" period="10">-->
<!--        <walk edges="3o 2o"/>-->
<!--    </personFlow>-->
    <personFlow id="3o1i" begin="1" period="10">
        <walk edges="3o 1i"/>
    </personFlow>
<!--    <personFlow id="3o4i" begin="1" period="10">-->
<!--        <walk edges="3o 4i"/>-->
<!--    </personFlow>-->

    <personFlow id="4o3o" begin="1" period="10">
        <walk edges="4o 3o"/>
    </personFlow>
<!--    <personFlow id="4o2i" begin="1" period="10">-->
<!--        <walk edges="4o 2i"/>-->
<!--    </personFlow>-->
<!--    <personFlow id="4o1i" begin="1" period="10">-->
<!--        <walk edges="4o 1i"/>-->
<!--    </personFlow>-->

    <route id="ru" edges="2o 3i"/>
    <route id="rd" edges="2o 1i"/>
    <route id="rl" edges="2o 4i"/>

    <route id="lr" edges="4o 2i"/>
    <route id="lu" edges="4o 3i"/>
    <route id="ld" edges="4o 1i"/>

    <route id="dl" edges="1o 4i"/>
    <route id="dr" edges="1o 2i"/>
    <route id="du" edges="1o 3i"/>

    <route id="ud" edges="3o 1i"/>
    <route id="ul" edges="3o 4i"/>
    <route id="ur" edges="3o 2i"/>
</routes>