<routes xmlns:xsi="http://www.w3.org/2001/XMLSchema-instance" xsi:noNamespaceSchemaLocation="http://sumo.dlr.de/xsd/routes_file.xsd">

    <person id="0" depart="0" color="yellow" departPos="160">
        <walk edges="1o 3i"/>
    </person>
    <person id="1" depart="0" color="yellow" departPos="160">
        <walk edges="1o 3i"/>
    </person>
    <person id="2" depart="0" color="yellow" departPos="160">
        <walk edges="1o 3i"/>
    </person>
    <person id="3" depart="0" color="yellow" departPos="160">
        <walk edges="2o 1o"/>
    </person>
    <person id="4" depart="0" color="yellow" departPos="160">
        <walk edges="2o 1o"/>
    </person>
    <person id="5" depart="0" color="yellow" departPos="160">
        <walk edges="2o 1o"/>
    </person>

</routes>